data_SMnMo
_audit_creation_method           'pos2cif.pl'
_cell_length_a               10.9903
_cell_length_b               12.690508
_cell_length_c               35
_cell_angle_alpha            90
_cell_angle_beta             90
_cell_angle_gamma            90
_symmetry_space_group_H-M        'P1'
_symmetry_Int_Tables_number      '1'
_symmetry_cell_setting           'triclinic'
loop_
_symmetry_equiv_pos_as_xyz
x,y,z

loop_
_atom_site_label
_atom_site_type_symbol
_atom_site_occupancy
_atom_site_fract_x
_atom_site_fract_y
_atom_site_fract_z
_atom_site_U_iso_or_equiv
S1  S  1.0000  0.33375  1.00104  0.46606  0.0000
S2  S  1.0000  0.83919  0.25133  0.45161  0.0000
S3  S  1.0000  0.33369  0.25106  0.44969  0.0000
S4  S  1.0000  0.84561  0.00591  0.45031  0.0000
S5  S  1.0000  0.07920  0.38119  0.45266  0.0000
S6  S  1.0000  0.58151  0.12937  0.45885  0.0000
S7  S  1.0000  0.09229  0.12856  0.45173  0.0000
S8  S  1.0000  0.58597  0.38295  0.45227  0.0000
S9  S  1.0000  0.17523  0.00342  0.54150  0.0000
S10  S  1.0000  0.16288  0.28307  0.54570  0.0000
S11  S  1.0000  0.67794  0.00782  0.54707  0.0000
S12  S  1.0000  0.43137  0.14181  0.54148  0.0000
S13  S  1.0000  0.90146  0.38724  0.54024  0.0000
S14  S  1.0000  0.90661  0.14213  0.54750  0.0000
S15  S  1.0000  0.34020  0.50138  0.45165  0.0000
S16  S  1.0000  0.84770  0.76063  0.45415  0.0000
S17  S  1.0000  0.33912  0.74819  0.45140  0.0000
S18  S  1.0000  0.83957  0.51047  0.44518  0.0000
S19  S  1.0000  0.09337  0.87748  0.46491  0.0000
S20  S  1.0000  0.58110  0.61617  0.46003  0.0000
S21  S  1.0000  0.09156  0.62556  0.45048  0.0000
S22  S  1.0000  0.58790  0.87148  0.45062  0.0000
S23  S  1.0000  0.18103  0.72579  0.55031  0.0000
S24  S  1.0000  0.91799  0.87326  0.53840  0.0000
S25  S  1.0000  0.43847  0.86176  0.55001  0.0000
S26  S  1.0000  0.89776  0.62734  0.54516  0.0000
S27  S  1.0000  0.34106  1.00205  0.34823  0.0000
S28  S  1.0000  0.84141  0.24901  0.34688  0.0000
S29  S  1.0000  0.34173  0.24954  0.35844  0.0000
S30  S  1.0000  0.84052  0.00038  0.35771  0.0000
S31  S  1.0000  0.09088  0.37376  0.34720  0.0000
S32  S  1.0000  0.59228  0.12583  0.34766  0.0000
S33  S  1.0000  0.08933  0.12465  0.35768  0.0000
S34  S  1.0000  0.59430  0.37280  0.35953  0.0000
S35  S  1.0000  0.17592  0.00011  0.26967  0.0000
S36  S  1.0000  0.17614  0.25113  0.25876  0.0000
S37  S  1.0000  0.67307  -0.00165  0.25791  0.0000
S38  S  1.0000  0.42473  0.12570  0.26980  0.0000
S39  S  1.0000  0.92476  0.37582  0.26944  0.0000
S40  S  1.0000  0.92322  0.12474  0.25769  0.0000
S41  S  1.0000  0.34184  0.50061  0.34945  0.0000
S42  S  1.0000  0.84164  0.75067  0.34736  0.0000
S43  S  1.0000  0.34229  0.75293  0.35936  0.0000
S44  S  1.0000  0.84306  0.49878  0.35812  0.0000
S45  S  1.0000  0.08963  0.87633  0.34756  0.0000
S46  S  1.0000  0.59200  0.62585  0.35013  0.0000
S47  S  1.0000  0.09160  0.62646  0.35849  0.0000
S48  S  1.0000  0.59279  0.87744  0.35876  0.0000
S49  S  1.0000  0.17692  0.74975  0.25928  0.0000
S50  S  1.0000  0.92456  0.87366  0.26898  0.0000
S51  S  1.0000  0.42566  0.87362  0.25905  0.0000
S52  S  1.0000  0.92362  0.62456  0.25908  0.0000
S53  S  1.0000  0.42651  0.37545  0.25909  0.0000
S54  S  1.0000  0.67387  0.24968  0.26885  0.0000
S55  S  1.0000  0.67393  0.49939  0.25903  0.0000
S56  S  1.0000  0.67306  0.74723  0.27020  0.0000
S57  S  1.0000  0.42581  0.62440  0.27111  0.0000
S58  S  1.0000  0.17731  0.50122  0.27108  0.0000
Mn1  Mn  1.0000  0.50297  0.50996  0.40087  0.0000
Mo1  Mo  1.0000  -0.00038  0.02761  0.50000  0.0000
Mo2  Mo  1.0000  0.48210  0.26469  0.49609  0.0000
Mo3  Mo  1.0000  0.00243  0.23935  0.49896  0.0000
Mo4  Mo  1.0000  0.52205  0.97729  0.50220  0.0000
Mo5  Mo  1.0000  0.23856  0.15224  0.50019  0.0000
Mo6  Mo  1.0000  0.77107  0.38728  0.48874  0.0000
Mo7  Mo  1.0000  0.24395  0.37007  0.49226  0.0000
Mo8  Mo  1.0000  0.76059  0.11309  0.49761  0.0000
Mo9  Mo  1.0000  0.98154  0.51642  0.49492  0.0000
Mo10  Mo  1.0000  0.49814  0.75979  0.49530  0.0000
Mo11  Mo  1.0000  0.02501  0.72848  0.50294  0.0000
Mo12  Mo  1.0000  0.48746  0.48347  0.49959  0.0000
Mo13  Mo  1.0000  0.24942  0.63131  0.49449  0.0000
Mo14  Mo  1.0000  0.75374  0.90008  0.49495  0.0000
Mo15  Mo  1.0000  0.27503  0.84577  0.50555  0.0000
Mo16  Mo  1.0000  0.77260  0.62935  0.49085  0.0000
Mo17  Mo  1.0000  -0.00674  0.01833  0.31041  0.0000
Mo18  Mo  1.0000  0.49747  0.27027  0.31137  0.0000
Mo19  Mo  1.0000  0.01857  0.22970  0.30536  0.0000
Mo20  Mo  1.0000  0.51997  0.98166  0.30614  0.0000
Mo21  Mo  1.0000  0.24555  0.14524  0.31128  0.0000
Mo22  Mo  1.0000  0.74511  0.39261  0.31102  0.0000
Mo23  Mo  1.0000  0.27201  0.35638  0.30657  0.0000
Mo24  Mo  1.0000  0.76792  0.10431  0.30517  0.0000
Mo25  Mo  1.0000  0.99553  0.51899  0.31140  0.0000
Mo26  Mo  1.0000  0.49621  0.77168  0.31223  0.0000
Mo27  Mo  1.0000  0.02142  0.73181  0.30612  0.0000
Mo28  Mo  1.0000  0.52170  0.48067  0.30715  0.0000
Mo29  Mo  1.0000  0.24790  0.64769  0.31225  0.0000
Mo30  Mo  1.0000  0.74458  0.89390  0.31083  0.0000
Mo31  Mo  1.0000  0.27175  0.85858  0.30675  0.0000
Mo32  Mo  1.0000  0.76996  0.60461  0.30680  0.0000
